<?xml version='1.0' encoding='UTF-8'?>
<routes xmlns:xsi="http://www.w3.org/2001/XMLSchema-instance" xsi:noNamespaceSchemaLocation="http://sumo.dlr.de/xsd/routes_file.xsd">
  <!-- Vehicle type definitions -->
  <vType id="CAV" color="0,255,0" guiShape="passenger" carFollowModel="CACC" tau="1.5" accel="1.2" decel="2.5" emergencyDecel="6.0" length="4.5" minGap="2.0" sigma="0.3" maxSpeed="13.9" laneChangeModel="SL2015" lcCooperative="0.4" lcImpatience="0.1" lcSpeedGain="1.5" lcStrategic="10">
    <!-- 50 km/h -->
    <param key="headwayTime" value="1.8"/>
    <param key="has.cacc.device" value="true"/>
    <param key="device.cacc.period" value="0.1"/>
  </vType>
  <vType id="HUMAN" color="255,0,0" guiShape="passenger" carFollowModel="IDM" tau="2.0" accel="1.0" decel="2.5" emergencyDecel="6.0" length="4.5" minGap="3.0" sigma="0.5" maxSpeed="11.1" laneChangeModel="SL2015" lcStrategic="6" lcCooperative="0.2" lcImpatience="0.2" lcSpeedGain="1.2"/>
  <!-- 40 km/h -->
  <trip id="veh1" type="CAV" depart="0.0" departLane="free" departSpeed="desired" from="399319666#0" to="18992156#0"/>
  <trip id="veh2" type="HUMAN" depart="5.0" departLane="free" departSpeed="desired" from="608951168#0" to="-1207261006#0"/>
  <trip id="veh3" type="CAV" depart="10.0" departLane="free" departSpeed="desired" from="-399319658" to="-610206061#0"/>
  <trip id="veh4" type="HUMAN" depart="15.0" departLane="free" departSpeed="desired" from="-120134330" to="-32825773#1"/>
  <trip id="veh5" type="CAV" depart="20.0" departLane="free" departSpeed="desired" from="-399319658" to="120134330"/>
  <trip id="veh6" type="HUMAN" depart="25.0" departLane="free" departSpeed="desired" from="399319673#0" to="-1021773032#0"/>
  <trip id="veh7" type="CAV" depart="30.0" departLane="free" departSpeed="desired" from="399319673#0" to="18996085#0"/>
  <trip id="veh8" type="HUMAN" depart="35.0" departLane="free" departSpeed="desired" from="610206080" to="-399319666#2"/>
  <trip id="veh9" type="CAV" depart="40.0" departLane="free" departSpeed="desired" from="399319683#0" to="120134330"/>
  <trip id="veh10" type="HUMAN" depart="45.0" departLane="free" departSpeed="desired" from="399319673#0" to="18996085#0"/>
  <trip id="veh11" type="CAV" depart="50.0" departLane="free" departSpeed="desired" from="18988881#0" to="688048681#1"/>
  <trip id="veh12" type="HUMAN" depart="55.0" departLane="free" departSpeed="desired" from="-688048681#2" to="-610206080"/>
  <trip id="veh13" type="CAV" depart="60.0" departLane="free" departSpeed="desired" from="399319683#0" to="18988882"/>
  <trip id="veh14" type="HUMAN" depart="65.0" departLane="free" departSpeed="desired" from="399319683#0" to="120134330"/>
  <trip id="veh15" type="CAV" depart="70.0" departLane="free" departSpeed="desired" from="393498065" to="-1021773035#1"/>
  <trip id="veh16" type="HUMAN" depart="75.0" departLane="free" departSpeed="desired" from="-399319664#3" to="-393498065"/>
  <trip id="veh17" type="CAV" depart="80.0" departLane="free" departSpeed="desired" from="-18988882" to="-393475370"/>
  <trip id="veh18" type="HUMAN" depart="85.0" departLane="free" departSpeed="desired" from="-18996085#1" to="-393498065"/>
  <trip id="veh19" type="CAV" depart="90.0" departLane="free" departSpeed="desired" from="393475370" to="-399319673#3"/>
  <trip id="veh20" type="HUMAN" depart="95.0" departLane="free" departSpeed="desired" from="393475370" to="18988882"/>
  <trip id="veh21" type="CAV" depart="100.0" departLane="free" departSpeed="desired" from="-18998317" to="18996085#0"/>
  <trip id="veh22" type="HUMAN" depart="105.0" departLane="free" departSpeed="desired" from="-18998317" to="-399319673#3"/>
  <trip id="veh23" type="CAV" depart="110.0" departLane="free" departSpeed="desired" from="610206080" to="18988882"/>
  <trip id="veh24" type="HUMAN" depart="115.0" departLane="free" departSpeed="desired" from="-399319664#3" to="-1021773032#0"/>
  <trip id="veh25" type="CAV" depart="120.0" departLane="free" departSpeed="desired" from="-399319667" to="-393498065"/>
  <trip id="veh26" type="HUMAN" depart="125.0" departLane="free" departSpeed="desired" from="-399319658" to="518374068#3"/>
  <trip id="veh27" type="CAV" depart="130.0" departLane="free" departSpeed="desired" from="608951168#0" to="-399319666#2"/>
  <trip id="veh28" type="HUMAN" depart="135.0" departLane="free" departSpeed="desired" from="393475370" to="-399319683#2"/>
  <trip id="veh29" type="CAV" depart="140.0" departLane="free" departSpeed="desired" from="-399319664#3" to="-393475370"/>
  <trip id="veh30" type="HUMAN" depart="145.0" departLane="free" departSpeed="desired" from="18988885#0" to="-393498065"/>
  <trip id="veh31" type="CAV" depart="150.0" departLane="free" departSpeed="desired" from="-688048681#2" to="-393475370"/>
  <trip id="veh32" type="HUMAN" depart="155.0" departLane="free" departSpeed="desired" from="-18988882" to="-1021773035#1"/>
  <trip id="veh33" type="CAV" depart="160.0" departLane="free" departSpeed="desired" from="-18996085#1" to="18988882"/>
  <trip id="veh34" type="HUMAN" depart="165.0" departLane="free" departSpeed="desired" from="-18988882" to="-399319673#3"/>
  <trip id="veh35" type="CAV" depart="170.0" departLane="free" departSpeed="desired" from="610206080" to="399319664#3"/>
  <trip id="veh36" type="HUMAN" depart="175.0" departLane="free" departSpeed="desired" from="-120134330" to="18996085#0"/>
  <trip id="veh37" type="CAV" depart="180.0" departLane="free" departSpeed="desired" from="-399319664#3" to="18988882"/>
  <trip id="veh38" type="HUMAN" depart="185.0" departLane="free" departSpeed="desired" from="-18996085#1" to="-608951168#0"/>
  <trip id="veh39" type="CAV" depart="190.0" departLane="free" departSpeed="desired" from="18988881#0" to="-32825773#1"/>
  <trip id="veh40" type="HUMAN" depart="195.0" departLane="free" departSpeed="desired" from="610206061#0" to="399319667"/>
  <trip id="veh41" type="CAV" depart="200.0" departLane="free" departSpeed="desired" from="-399319667" to="18988882"/>
  <trip id="veh42" type="HUMAN" depart="205.0" departLane="free" departSpeed="desired" from="32825773#0" to="-18988885#4"/>
  <trip id="veh43" type="CAV" depart="210.0" departLane="free" departSpeed="desired" from="399319666#0" to="-610206080"/>
  <trip id="veh44" type="HUMAN" depart="215.0" departLane="free" departSpeed="desired" from="399319673#0" to="-610206080"/>
  <trip id="veh45" type="CAV" depart="220.0" departLane="free" from="-1054667346#4" to="-399319666#2" departSpeed="desired"/>
  <trip id="veh46" type="HUMAN" depart="225.0" departLane="free" departSpeed="desired" from="-120134330" to="518374068#3"/>
  <trip id="veh47" type="CAV" depart="230.0" departLane="free" departSpeed="desired" from="608951168#0" to="399319664#3"/>
  <trip id="veh48" type="HUMAN" depart="235.0" departLane="free" departSpeed="desired" from="-399319667" to="-1021773035#1"/>
  <trip id="veh49" type="CAV" depart="240.0" departLane="free" departSpeed="desired" from="608951168#0" to="518374068#3"/>
  <trip id="veh50" type="HUMAN" depart="245.0" departLane="free" departSpeed="desired" from="-18988882" to="-610206061#0"/>
  <trip id="veh51" type="CAV" depart="250.0" departLane="free" departSpeed="desired" from="-18988882" to="18998317"/>
  <trip id="veh52" type="HUMAN" depart="255.0" departLane="free" departSpeed="desired" from="399319666#0" to="-18988881#0"/>
  <trip id="veh53" type="CAV" depart="260.0" departLane="free" departSpeed="desired" from="1021773035#0" to="-610206080"/>
  <trip id="veh54" type="HUMAN" depart="265.0" departLane="free" departSpeed="desired" from="-399319664#3" to="399319667"/>
  <trip id="veh55" type="CAV" depart="270.0" departLane="free" departSpeed="desired" from="1021773032#0" to="-32825773#1"/>
  <trip id="veh56" type="HUMAN" depart="275.0" departLane="free" departSpeed="desired" from="610206080" to="18988882"/>
  <trip id="veh57" type="CAV" depart="280.0" departLane="free" departSpeed="desired" from="-18996085#1" to="-393475370"/>
  <trip id="veh58" type="HUMAN" depart="285.0" departLane="free" departSpeed="desired" from="-518374068#3" to="120134330"/>
  <trip id="veh59" type="CAV" depart="290.0" departLane="free" departSpeed="desired" from="-399319664#3" to="-393475370"/>
  <trip id="veh60" type="HUMAN" depart="295.0" departLane="free" departSpeed="desired" from="-399319664#3" to="399319667"/>
  <trip id="veh61" type="CAV" depart="300.0" departLane="free" departSpeed="desired" from="399319683#0" to="-1021773035#1"/>
  <trip id="veh62" type="HUMAN" depart="305.0" departLane="free" departSpeed="desired" from="-399319658" to="-18988885#4"/>
  <trip id="veh63" type="CAV" depart="310.0" departLane="free" departSpeed="desired" from="610206061#0" to="120134330"/>
  <trip id="veh64" type="HUMAN" depart="315.0" departLane="free" departSpeed="desired" from="1021773035#0" to="399319658"/>
  <trip id="veh65" type="CAV" depart="320.0" departLane="free" departSpeed="desired" from="-18996085#1" to="-399319683#2"/>
  <trip id="veh66" type="HUMAN" depart="325.0" departLane="free" departSpeed="desired" from="1021773032#0" to="-608951168#0"/>
  <trip id="veh67" type="CAV" depart="330.0" departLane="free" departSpeed="desired" from="399319666#0" to="18992156#0"/>
  <trip id="veh68" type="HUMAN" depart="335.0" departLane="free" departSpeed="desired" from="610206080" to="-18988881#0"/>
  <trip id="veh69" type="CAV" depart="340.0" departLane="free" departSpeed="desired" from="-688048681#2" to="-399319666#2"/>
  <trip id="veh70" type="HUMAN" depart="345.0" departLane="free" departSpeed="desired" from="399319683#0" to="-393475370"/>
  <trip id="veh71" type="CAV" depart="350.0" departLane="free" departSpeed="desired" from="-399319658" to="-608951168#0"/>
  <trip id="veh72" type="HUMAN" depart="355.0" departLane="free" departSpeed="desired" from="1021773032#0" to="399319664#3"/>
  <trip id="veh73" type="CAV" depart="360.0" departLane="free" departSpeed="desired" from="18988885#0" to="-1021773035#1"/>
  <trip id="veh74" type="HUMAN" depart="365.0" departLane="free" from="518374066#0" to="399319664#3" departSpeed="desired"/>
  <trip id="veh75" type="CAV" depart="370.0" departLane="free" departSpeed="desired" from="610206080" to="518374068#3"/>
  <trip id="veh76" type="HUMAN" depart="375.0" departLane="free" departSpeed="desired" from="399319683#0" to="-18988885#4"/>
  <trip id="veh77" type="CAV" depart="380.0" departLane="free" departSpeed="desired" from="1021773035#0" to="-32825773#1"/>
  <trip id="veh78" type="HUMAN" depart="385.0" departLane="free" departSpeed="desired" from="-688048681#2" to="-1021773035#1"/>
  <trip id="veh79" type="CAV" depart="390.0" departLane="free" departSpeed="desired" from="-399319664#3" to="399319658"/>
  <trip id="veh80" type="HUMAN" depart="395.0" departLane="free" departSpeed="desired" from="1021773035#0" to="-399319683#2"/>
  <trip id="veh81" type="CAV" depart="400.0" departLane="free" departSpeed="desired" from="610206080" to="688048681#1"/>
  <trip id="veh82" type="HUMAN" depart="405.0" departLane="free" departSpeed="desired" from="-18998317" to="-393498065"/>
  <trip id="veh83" type="CAV" depart="410.0" departLane="free" departSpeed="desired" from="610206080" to="120134330"/>
  <trip id="veh84" type="HUMAN" depart="415.0" departLane="free" departSpeed="desired" from="18988881#0" to="18998317"/>
  <trip id="veh85" type="CAV" depart="420.0" departLane="free" departSpeed="desired" from="-18998317" to="688048681#1"/>
  <trip id="veh86" type="HUMAN" depart="425.0" departLane="free" departSpeed="desired" from="-18988882" to="-32825773#1"/>
  <trip id="veh87" type="CAV" depart="430.0" departLane="free" departSpeed="desired" from="32825773#0" to="18992156#0"/>
  <trip id="veh88" type="HUMAN" depart="435.0" departLane="free" departSpeed="desired" from="608951168#0" to="-393475370"/>
  <trip id="veh89" type="CAV" depart="440.0" departLane="free" departSpeed="desired" from="32825773#0" to="18988882"/>
  <trip id="veh90" type="HUMAN" depart="445.0" departLane="free" departSpeed="desired" from="1021773032#0" to="120134330"/>
  <trip id="veh91" type="CAV" depart="450.0" departLane="free" departSpeed="desired" from="-399319658" to="18996085#0"/>
  <trip id="veh92" type="HUMAN" depart="455.0" departLane="free" departSpeed="desired" from="-399319664#3" to="-399319683#2"/>
  <trip id="veh93" type="CAV" depart="460.0" departLane="free" departSpeed="desired" from="-399319667" to="18998317"/>
  <trip id="veh94" type="HUMAN" depart="465.0" departLane="free" departSpeed="desired" from="-18988882" to="-608951168#0"/>
  <trip id="veh95" type="CAV" depart="470.0" departLane="free" departSpeed="desired" from="-18988882" to="-32825773#1"/>
  <trip id="veh96" type="HUMAN" depart="475.0" departLane="free" departSpeed="desired" from="608951168#0" to="399319667"/>
  <trip id="veh97" type="CAV" depart="480.0" departLane="free" departSpeed="desired" from="-688048681#2" to="-18988885#4"/>
  <trip id="veh98" type="HUMAN" depart="485.0" departLane="free" departSpeed="desired" from="399319683#0" to="18996085#0"/>
  <trip id="veh99" type="CAV" depart="490.0" departLane="free" departSpeed="desired" from="399319683#0" to="-393498065"/>
  <trip id="veh100" type="HUMAN" depart="495.0" departLane="free" departSpeed="desired" from="393475370" to="518374068#3"/>
  <trip id="veh101" type="CAV" depart="500.0" departLane="free" departSpeed="desired" from="-18996085#1" to="-610206080"/>
  <trip id="veh102" type="HUMAN" depart="505.0" departLane="free" from="-399319665#1" to="120134330" departSpeed="desired"/>
  <trip id="veh103" type="CAV" depart="510.0" departLane="free" departSpeed="desired" from="393498065" to="-32825773#1"/>
  <trip id="veh104" type="HUMAN" depart="515.0" departLane="free" departSpeed="desired" from="32825773#0" to="-393498065"/>
  <trip id="veh105" type="CAV" depart="520.0" departLane="free" departSpeed="desired" from="1021773035#0" to="399319667"/>
  <trip id="veh106" type="HUMAN" depart="525.0" departLane="free" departSpeed="desired" from="399319683#0" to="-18988881#0"/>
  <trip id="veh107" type="CAV" depart="530.0" departLane="free" departSpeed="desired" from="399319666#0" to="-610206080"/>
  <trip id="veh108" type="HUMAN" depart="535.0" departLane="free" departSpeed="desired" from="-18988882" to="399319667"/>
  <trip id="veh109" type="CAV" depart="540.0" departLane="free" departSpeed="desired" from="399319683#0" to="120134330"/>
  <trip id="veh110" type="HUMAN" depart="545.0" departLane="free" departSpeed="desired" from="-18998317" to="-18988881#0"/>
  <trip id="veh111" type="CAV" depart="550.0" departLane="free" departSpeed="desired" from="399319673#0" to="399319664#3"/>
  <trip id="veh112" type="HUMAN" depart="555.0" departLane="free" departSpeed="desired" from="399319673#0" to="399319667"/>
  <trip id="veh113" type="CAV" depart="560.0" departLane="free" departSpeed="desired" from="-688048681#2" to="18988882"/>
  <trip id="veh114" type="HUMAN" depart="565.0" departLane="free" departSpeed="desired" from="-18998317" to="518374068#3"/>
  <trip id="veh115" type="CAV" depart="570.0" departLane="free" departSpeed="desired" from="399319673#0" to="399319667"/>
  <trip id="veh116" type="HUMAN" depart="575.0" departLane="free" departSpeed="desired" from="-120134330" to="18996085#0"/>
  <trip id="veh117" type="CAV" depart="580.0" departLane="free" departSpeed="desired" from="399319673#0" to="399319664#3"/>
  <trip id="veh118" type="HUMAN" depart="585.0" departLane="free" departSpeed="desired" from="399319673#0" to="-393498065"/>
  <trip id="veh119" type="CAV" depart="590.0" departLane="free" departSpeed="desired" from="399319673#0" to="-18988881#0"/>
  <trip id="veh120" type="HUMAN" depart="595.0" departLane="free" departSpeed="desired" from="608951168#0" to="399319664#3"/>
  <trip id="veh121" type="CAV" depart="600.0" departLane="free" departSpeed="desired" from="1021773035#0" to="-399319666#2"/>
  <trip id="veh122" type="HUMAN" depart="605.0" departLane="free" departSpeed="desired" from="399319673#0" to="-393475370"/>
  <trip id="veh123" type="CAV" depart="610.0" departLane="free" departSpeed="desired" from="-120134330" to="-32825773#1"/>
  <trip id="veh124" type="HUMAN" depart="615.0" departLane="free" departSpeed="desired" from="393475370" to="-399319683#2"/>
  <trip id="veh125" type="CAV" depart="620.0" departLane="free" departSpeed="desired" from="610206061#0" to="-18988881#0"/>
  <trip id="veh126" type="HUMAN" depart="625.0" departLane="free" departSpeed="desired" from="610206080" to="-32825773#1"/>
  <trip id="veh127" type="CAV" depart="630.0" departLane="free" departSpeed="desired" from="-18996085#1" to="-608951168#0"/>
  <trip id="veh128" type="HUMAN" depart="635.0" departLane="free" departSpeed="desired" from="32825773#0" to="-610206061#0"/>
  <trip id="veh129" type="CAV" depart="640.0" departLane="free" departSpeed="desired" from="-688048681#2" to="120134330"/>
  <trip id="veh130" type="HUMAN" depart="645.0" departLane="free" departSpeed="desired" from="-120134330" to="518374068#3"/>
  <trip id="veh131" type="CAV" depart="650.0" departLane="free" departSpeed="desired" from="399319666#0" to="18992156#0"/>
  <trip id="veh132" type="HUMAN" depart="655.0" departLane="free" departSpeed="desired" from="-688048681#2" to="-1021773035#1"/>
  <trip id="veh133" type="CAV" depart="660.0" departLane="free" departSpeed="desired" from="393475370" to="-399319666#2"/>
  <trip id="veh134" type="HUMAN" depart="665.0" departLane="free" departSpeed="desired" from="-399319667" to="399319664#3"/>
  <trip id="veh135" type="CAV" depart="670.0" departLane="free" departSpeed="desired" from="-399319667" to="-399319683#2"/>
  <trip id="veh136" type="HUMAN" depart="675.0" departLane="free" departSpeed="desired" from="-688048681#2" to="-393498065"/>
  <trip id="veh137" type="CAV" depart="680.0" departLane="free" departSpeed="desired" from="-18996085#1" to="-399319683#2"/>
  <trip id="veh138" type="HUMAN" depart="685.0" departLane="free" departSpeed="desired" from="610206061#0" to="18992156#0"/>
  <trip id="veh139" type="CAV" depart="690.0" departLane="free" departSpeed="desired" from="608951168#0" to="18988882"/>
  <trip id="veh140" type="HUMAN" depart="695.0" departLane="free" departSpeed="desired" from="-399319667" to="-610206080"/>
  <trip id="veh141" type="CAV" depart="700.0" departLane="free" departSpeed="desired" from="1021773032#0" to="120134330"/>
  <trip id="veh142" type="HUMAN" depart="705.0" departLane="free" departSpeed="desired" from="393475370" to="-608951168#0"/>
  <trip id="veh143" type="CAV" depart="710.0" departLane="free" departSpeed="desired" from="1021773032#0" to="-32825773#1"/>
  <trip id="veh144" type="HUMAN" depart="715.0" departLane="free" departSpeed="desired" from="1021773035#0" to="399319667"/>
  <trip id="veh145" type="CAV" depart="720.0" departLane="free" departSpeed="desired" from="399319673#0" to="-18988885#4"/>
  <trip id="veh146" type="HUMAN" depart="725.0" departLane="free" departSpeed="desired" from="-18988882" to="-610206061#0"/>
  <trip id="veh147" type="CAV" depart="730.0" departLane="free" departSpeed="desired" from="32825773#0" to="-399319666#2"/>
  <trip id="veh148" type="HUMAN" depart="735.0" departLane="free" departSpeed="desired" from="-399319658" to="-1021773032#0"/>
  <trip id="veh149" type="CAV" depart="740.0" departLane="free" departSpeed="desired" from="-399319664#3" to="-608951168#0"/>
  <trip id="veh150" type="HUMAN" depart="745.0" departLane="free" departSpeed="desired" from="399319683#0" to="-1021773035#1"/>
  <trip id="veh151" type="CAV" depart="750.0" departLane="free" departSpeed="desired" from="1021773032#0" to="18988882"/>
  <trip id="veh152" type="HUMAN" depart="755.0" departLane="free" departSpeed="desired" from="-399319658" to="18996085#0"/>
  <trip id="veh153" type="CAV" depart="760.0" departLane="free" departSpeed="desired" from="1021773035#0" to="-393475370"/>
  <trip id="veh154" type="HUMAN" depart="765.0" departLane="free" departSpeed="desired" from="-18996085#1" to="-399319683#2"/>
  <trip id="veh155" type="CAV" depart="770.0" departLane="free" departSpeed="desired" from="-18998317" to="688048681#1"/>
  <trip id="veh156" type="HUMAN" depart="775.0" departLane="free" departSpeed="desired" from="1021773035#0" to="399319658"/>
  <trip id="veh157" type="CAV" depart="780.0" departLane="free" departSpeed="desired" from="393475370" to="688048681#1"/>
  <trip id="veh158" type="HUMAN" depart="785.0" departLane="free" departSpeed="desired" from="32825773#0" to="518374068#3"/>
  <trip id="veh159" type="CAV" depart="790.0" departLane="free" departSpeed="desired" from="608951168#0" to="18988882"/>
  <trip id="veh160" type="HUMAN" depart="795.0" departLane="free" departSpeed="desired" from="399319683#0" to="-610206080"/>
  <trip id="veh161" type="CAV" depart="800.0" departLane="free" departSpeed="desired" from="608951168#0" to="18998317"/>
  <trip id="veh162" type="HUMAN" depart="805.0" departLane="free" departSpeed="desired" from="1021773035#0" to="-393475370"/>
  <trip id="veh163" type="CAV" depart="810.0" departLane="free" departSpeed="desired" from="-399319664#3" to="18988882"/>
  <trip id="veh164" type="HUMAN" depart="815.0" departLane="free" departSpeed="desired" from="399319666#0" to="-610206080"/>
  <trip id="veh165" type="CAV" depart="820.0" departLane="free" departSpeed="desired" from="32825773#0" to="-393498065"/>
  <trip id="veh166" type="HUMAN" depart="825.0" departLane="free" departSpeed="desired" from="-18988882" to="-393498065"/>
  <trip id="veh167" type="CAV" depart="830.0" departLane="free" departSpeed="desired" from="-399319664#3" to="-399319666#2"/>
  <trip id="veh168" type="HUMAN" depart="835.0" departLane="free" departSpeed="desired" from="393498065" to="-1021773035#1"/>
  <trip id="veh169" type="CAV" depart="840.0" departLane="free" departSpeed="desired" from="-688048681#2" to="-610206080"/>
  <trip id="veh170" type="HUMAN" depart="845.0" departLane="free" departSpeed="desired" from="1021773032#0" to="-32825773#1"/>
  <trip id="veh171" type="CAV" depart="850.0" departLane="free" departSpeed="desired" from="1021773032#0" to="399319667"/>
  <trip id="veh172" type="HUMAN" depart="855.0" departLane="free" departSpeed="desired" from="-688048681#2" to="-1021773032#0"/>
  <trip id="veh173" type="CAV" depart="860.0" departLane="free" departSpeed="desired" from="-518374068#3" to="18998317"/>
  <trip id="veh174" type="HUMAN" depart="865.0" departLane="free" departSpeed="desired" from="399319683#0" to="518374068#3"/>
  <trip id="veh175" type="CAV" depart="870.0" departLane="free" departSpeed="desired" from="1021773032#0" to="18998317"/>
  <trip id="veh176" type="HUMAN" depart="875.0" departLane="free" departSpeed="desired" from="18988885#0" to="120134330"/>
  <trip id="veh177" type="CAV" depart="880.0" departLane="free" departSpeed="desired" from="-399319658" to="-393475370"/>
  <trip id="veh178" type="HUMAN" depart="885.0" departLane="free" departSpeed="desired" from="-518374068#3" to="18992156#0"/>
  <trip id="veh179" type="CAV" depart="890.0" departLane="free" departSpeed="desired" from="-688048681#2" to="-18988885#4"/>
  <trip id="veh180" type="HUMAN" depart="895.0" departLane="free" departSpeed="desired" from="32825773#0" to="-1021773032#0"/>
  <trip id="veh181" type="CAV" depart="900.0" departLane="free" departSpeed="desired" from="-688048681#2" to="120134330"/>
  <trip id="veh182" type="HUMAN" depart="905.0" departLane="free" departSpeed="desired" from="-18996085#1" to="-608951168#0"/>
  <trip id="veh183" type="CAV" depart="910.0" departLane="free" departSpeed="desired" from="-18988882" to="-399319673#3"/>
  <trip id="veh184" type="HUMAN" depart="915.0" departLane="free" departSpeed="desired" from="399319666#0" to="399319664#3"/>
  <trip id="veh185" type="CAV" depart="920.0" departLane="free" departSpeed="desired" from="-120134330" to="-610206080"/>
  <trip id="veh186" type="HUMAN" depart="925.0" departLane="free" departSpeed="desired" from="393475370" to="399319658"/>
  <trip id="veh187" type="CAV" depart="930.0" departLane="free" departSpeed="desired" from="393475370" to="18998317"/>
  <trip id="veh188" type="HUMAN" depart="935.0" departLane="free" departSpeed="desired" from="610206061#0" to="-32825773#1"/>
  <trip id="veh189" type="CAV" depart="940.0" departLane="free" departSpeed="desired" from="-120134330" to="-18988885#4"/>
  <trip id="veh190" type="HUMAN" depart="945.0" departLane="free" departSpeed="desired" from="18988885#0" to="-393475370"/>
  <trip id="veh191" type="CAV" depart="950.0" departLane="free" departSpeed="desired" from="393498065" to="18998317"/>
  <trip id="veh192" type="HUMAN" depart="955.0" departLane="free" departSpeed="desired" from="399319666#0" to="-18988881#0"/>
  <trip id="veh193" type="CAV" depart="960.0" departLane="free" departSpeed="desired" from="399319683#0" to="688048681#1"/>
  <trip id="veh194" type="HUMAN" depart="965.0" departLane="free" departSpeed="desired" from="-18996085#1" to="-1021773032#0"/>
  <trip id="veh195" type="CAV" depart="970.0" departLane="free" departSpeed="desired" from="610206080" to="-399319683#2"/>
  <trip id="veh196" type="HUMAN" depart="975.0" departLane="free" departSpeed="desired" from="393498065" to="-1021773035#1"/>
  <trip id="veh197" type="CAV" depart="980.0" departLane="free" departSpeed="desired" from="393498065" to="18988882"/>
  <trip id="veh198" type="HUMAN" depart="985.0" departLane="free" departSpeed="desired" from="-18996085#1" to="18998317"/>
  <trip id="veh199" type="CAV" depart="990.0" departLane="free" departSpeed="desired" from="399319683#0" to="120134330"/>
  <trip id="veh200" type="HUMAN" depart="995.0" departLane="free" departSpeed="desired" from="-18996085#1" to="688048681#1"/>
  <trip id="veh201" type="CAV" depart="1000.0" departLane="free" departSpeed="desired" from="1021773032#0" to="-399319673#3"/>
  <trip id="veh202" type="HUMAN" depart="1005.0" departLane="free" departSpeed="desired" from="18988881#0" to="-399319666#2"/>
  <trip id="veh203" type="CAV" depart="1010.0" departLane="free" departSpeed="desired" from="-18996085#1" to="688048681#1"/>
  <trip id="veh204" type="HUMAN" depart="1015.0" departLane="free" departSpeed="desired" from="32825773#0" to="399319664#3"/>
  <trip id="veh205" type="CAV" depart="1020.0" departLane="free" departSpeed="desired" from="399319666#0" to="688048681#1"/>
  <trip id="veh206" type="HUMAN" depart="1025.0" departLane="free" departSpeed="desired" from="-399319664#3" to="399319658"/>
  <trip id="veh207" type="CAV" depart="1030.0" departLane="free" departSpeed="desired" from="18988881#0" to="-610206061#0"/>
  <trip id="veh208" type="HUMAN" depart="1035.0" departLane="free" departSpeed="desired" from="1021773032#0" to="18996085#0"/>
  <trip id="veh209" type="CAV" depart="1040.0" departLane="free" departSpeed="desired" from="399319683#0" to="-105683264#3"/>
  <trip id="veh210" type="HUMAN" depart="1045.0" departLane="free" departSpeed="desired" from="608951168#0" to="-393475370"/>
  <trip id="veh211" type="CAV" depart="1050.0" departLane="free" departSpeed="desired" from="1021773035#0" to="18988882"/>
  <trip id="veh212" type="HUMAN" depart="1055.0" departLane="free" departSpeed="desired" from="-688048681#2" to="-1021773032#0"/>
  <trip id="veh213" type="CAV" depart="1060.0" departLane="free" departSpeed="desired" from="-518374068#3" to="399319667"/>
  <trip id="veh214" type="HUMAN" depart="1065.0" departLane="free" departSpeed="desired" from="-120134330" to="518374068#3"/>
  <trip id="veh215" type="CAV" depart="1070.0" departLane="free" departSpeed="desired" from="-18988882" to="18996085#0"/>
  <trip id="veh216" type="HUMAN" depart="1075.0" departLane="free" departSpeed="desired" from="1021773035#0" to="18998317"/>
  <trip id="veh217" type="CAV" depart="1080.0" departLane="free" departSpeed="desired" from="393498065" to="18988882"/>
  <trip id="veh218" type="HUMAN" depart="1085.0" departLane="free" departSpeed="desired" from="1021773035#0" to="399319658"/>
  <trip id="veh219" type="CAV" depart="1090.0" departLane="free" departSpeed="desired" from="-18996085#1" to="-393475370"/>
  <trip id="veh220" type="HUMAN" depart="1095.0" departLane="free" departSpeed="desired" from="393498065" to="-399319666#2"/>
  <trip id="veh221" type="CAV" depart="1100.0" departLane="free" departSpeed="desired" from="18988885#0" to="-608951168#0"/>
  <trip id="veh222" type="HUMAN" depart="1105.0" departLane="free" departSpeed="desired" from="18988881#0" to="-399319683#2"/>
  <trip id="veh223" type="CAV" depart="1110.0" departLane="free" departSpeed="desired" from="-399319658" to="-18988881#0"/>
  <trip id="veh224" type="HUMAN" depart="1115.0" departLane="free" departSpeed="desired" from="18988881#0" to="18998317"/>
  <trip id="veh225" type="CAV" depart="1120.0" departLane="free" departSpeed="desired" from="-399319658" to="-32825773#1"/>
  <trip id="veh226" type="HUMAN" depart="1125.0" departLane="free" departSpeed="desired" from="1021773035#0" to="18996085#0"/>
  <trip id="veh227" type="CAV" depart="1130.0" departLane="free" departSpeed="desired" from="-399319667" to="-18988881#0"/>
  <trip id="veh228" type="HUMAN" depart="1135.0" departLane="free" departSpeed="desired" from="-399319658" to="-393475370"/>
  <trip id="veh229" type="CAV" depart="1140.0" departLane="free" departSpeed="desired" from="-18998317" to="-1021773032#0"/>
  <trip id="veh230" type="HUMAN" depart="1145.0" departLane="free" departSpeed="desired" from="18988881#0" to="-393498065"/>
  <trip id="veh231" type="CAV" depart="1150.0" departLane="free" departSpeed="desired" from="393498065" to="-18988881#0"/>
  <trip id="veh232" type="HUMAN" depart="1155.0" departLane="free" departSpeed="desired" from="608951168#0" to="120134330"/>
  <trip id="veh233" type="CAV" depart="1160.0" departLane="free" departSpeed="desired" from="1021773035#0" to="-608951168#0"/>
  <trip id="veh234" type="HUMAN" depart="1165.0" departLane="free" departSpeed="desired" from="-399319658" to="-1021773035#1"/>