<?xml version="1.0" encoding="UTF-8"?>

<!-- generated on 2025-07-30 23:53:10 by Eclipse SUMO netedit Version 1.20.0
<configuration xmlns:xsi="http://www.w3.org/2001/XMLSchema-instance" xsi:noNamespaceSchemaLocation="http://sumo.dlr.de/xsd/neteditConfiguration.xsd">

    <input>
        <sumo-net-file value="/home/acems/Ali/UWM Campus SSM Project/osm.net.xml"/>
    </input>

    <output>
        <output-file value="/home/acems/Ali/UWM Campus SSM Project/osm.net.xml"/>
        <output.street-names value="true"/>
    </output>

    <processing>
        <geometry.min-radius.fix.railways value="false"/>
        <geometry.max-grade.fix value="false"/>
        <offset.disable-normalization value="true"/>
        <lefthand value="0"/>
    </processing>

    <junctions>
        <no-turnarounds value="true"/>
        <junctions.corner-detail value="5"/>
        <junctions.limit-turn-speed value="5.50"/>
        <rectangular-lane-cut value="0"/>
    </junctions>

    <pedestrian>
        <walkingareas value="0"/>
    </pedestrian>

</configuration>
-->

<net version="1.20" junctionCornerDetail="5" limitTurnSpeed="5.50" xmlns:xsi="http://www.w3.org/2001/XMLSchema-instance" xsi:noNamespaceSchemaLocation="http://sumo.dlr.de/xsd/net_file.xsd">

    <location netOffset="-427708.34,-4769349.61" convBoundary="0.00,0.00,845.14,682.08" origBoundary="-87.888042,43.073463,-87.877681,43.079584" projParameter="+proj=utm +zone=16 +ellps=WGS84 +datum=WGS84 +units=m +no_defs"/>

    <type id="highway.residential" priority="3" numLanes="1" speed="13.89" disallow="tram rail_urban rail rail_electric rail_fast ship container cable_car subway aircraft wheelchair scooter drone" oneway="0"/>
    <type id="highway.secondary" priority="11" numLanes="1" speed="27.78" disallow="tram rail_urban rail rail_electric rail_fast ship container cable_car subway aircraft wheelchair scooter drone" oneway="0"/>
    <type id="highway.tertiary" priority="10" numLanes="1" speed="22.22" disallow="tram rail_urban rail rail_electric rail_fast ship container cable_car subway aircraft wheelchair scooter drone" oneway="0"/>

    <edge id=":196627002_0" function="internal">
        <lane id=":196627002_0_0" index="0" disallow="tram rail_urban rail rail_electric rail_fast ship container cable_car subway aircraft wheelchair scooter drone" speed="6.37" length="8.49" shape="26.68,677.46 26.26,675.38 25.15,673.90 23.35,673.03 20.85,672.75"/>
    </edge>
    <edge id=":196627002_1" function="internal">
        <lane id=":196627002_1_0" index="0" disallow="tram rail_urban rail rail_electric rail_fast ship container cable_car subway aircraft wheelchair scooter drone" speed="11.18" length="13.60" shape="26.68,677.46 26.27,663.87"/>
    </edge>
    <edge id=":196627002_2" function="internal">
        <lane id=":196627002_2_0" index="0" disallow="tram rail_urban rail rail_electric rail_fast ship container cable_car subway aircraft wheelchair scooter drone" speed="7.62" length="3.65" shape="26.68,677.46 27.42,674.53 27.81,674.03"/>
    </edge>
    <edge id=":196627002_3" function="internal">
        <lane id=":196627002_3_0" index="0" disallow="tram rail_urban rail rail_electric rail_fast ship container cable_car subway aircraft wheelchair scooter drone" speed="3.65" length="1.44" shape="26.68,677.46 27.45,676.24"/>
    </edge>
    <edge id=":196627002_16" function="internal">
        <lane id=":196627002_16_0" index="0" disallow="tram rail_urban rail rail_electric rail_fast ship container cable_car subway aircraft wheelchair scooter drone" speed="7.62" length="9.15" shape="27.81,674.03 29.45,671.94 32.25,670.06 35.27,669.30"/>
    </edge>
    <edge id=":196627002_17" function="internal">
        <lane id=":196627002_17_0" index="0" disallow="tram rail_urban rail rail_electric rail_fast ship container cable_car subway aircraft wheelchair scooter drone" speed="3.65" length="3.23" shape="27.45,676.24 28.23,675.82 29.04,676.19 29.88,677.37"/>
    </edge>
    <edge id=":196627002_4" function="internal">
        <lane id=":196627002_4_0" index="0" disallow="tram rail_urban rail rail_electric rail_fast ship container cable_car subway aircraft wheelchair scooter drone" speed="6.27" length="8.34" shape="35.35,672.50 32.91,672.86 31.18,673.79 30.17,675.29 29.88,677.37"/>
    </edge>
    <edge id=":196627002_5" function="internal">
        <lane id=":196627002_5_0" index="0" disallow="tram rail_urban rail rail_electric rail_fast ship container cable_car subway aircraft wheelchair scooter drone" speed="11.18" length="14.50" shape="35.35,672.50 20.85,672.75"/>
    </edge>
    <edge id=":196627002_6" function="internal">
        <lane id=":196627002_6_0" index="0" disallow="tram rail_urban rail rail_electric rail_fast ship container cable_car subway aircraft wheelchair scooter drone" speed="7.84" length="13.52" shape="35.35,672.50 32.19,671.78 29.29,669.79 27.16,666.99 26.27,663.87"/>
    </edge>
    <edge id=":196627002_7" function="internal">
        <lane id=":196627002_7_0" index="0" disallow="tram rail_urban rail rail_electric rail_fast ship container cable_car subway aircraft wheelchair scooter drone" speed="3.65" length="4.67" shape="35.35,672.50 34.13,671.73 33.71,670.94 34.09,670.13 35.27,669.30"/>
    </edge>
    <edge id=":196627002_8" function="internal">
        <lane id=":196627002_8_0" index="0" disallow="tram rail_urban rail rail_electric rail_fast ship container cable_car subway aircraft wheelchair scooter drone" speed="6.56" length="9.13" shape="29.47,663.76 29.90,666.24 31.01,667.99 32.80,669.01 35.27,669.30"/>
    </edge>
    <edge id=":196627002_9" function="internal">
        <lane id=":196627002_9_0" index="0" disallow="tram rail_urban rail rail_electric rail_fast ship container cable_car subway aircraft wheelchair scooter drone" speed="11.18" length="13.61" shape="29.47,663.76 29.88,677.37"/>
    </edge>
    <edge id=":196627002_10" function="internal">
        <lane id=":196627002_10_0" index="0" disallow="tram rail_urban rail rail_electric rail_fast ship container cable_car subway aircraft wheelchair scooter drone" speed="7.75" length="4.09" shape="29.47,663.76 28.76,666.91 28.27,667.63"/>
    </edge>
    <edge id=":196627002_11" function="internal">
        <lane id=":196627002_11_0" index="0" disallow="tram rail_urban rail rail_electric rail_fast ship container cable_car subway aircraft wheelchair scooter drone" speed="3.65" length="1.44" shape="29.47,663.76 28.71,664.99"/>
    </edge>
    <edge id=":196627002_18" function="internal">
        <lane id=":196627002_18_0" index="0" disallow="tram rail_urban rail rail_electric rail_fast ship container cable_car subway aircraft wheelchair scooter drone" speed="7.75" length="9.38" shape="28.27,667.63 26.77,669.80 23.97,671.92 20.85,672.75"/>
    </edge>
    <edge id=":196627002_19" function="internal">
        <lane id=":196627002_19_0" index="0" disallow="tram rail_urban rail rail_electric rail_fast ship container cable_car subway aircraft wheelchair scooter drone" speed="3.65" length="3.23" shape="28.71,664.99 27.92,665.41 27.11,665.04 26.27,663.87"/>
    </edge>
    <edge id=":196627002_12" function="internal">
        <lane id=":196627002_12_0" index="0" disallow="tram rail_urban rail rail_electric rail_fast ship container cable_car subway aircraft wheelchair scooter drone" speed="6.46" length="9.03" shape="20.82,669.56 23.27,669.18 25.00,668.10 26.00,666.33 26.27,663.87"/>
    </edge>
    <edge id=":196627002_13" function="internal">
        <lane id=":196627002_13_0" index="0" disallow="tram rail_urban rail rail_electric rail_fast ship container cable_car subway aircraft wheelchair scooter drone" speed="11.18" length="14.46" shape="20.82,669.56 35.27,669.30"/>
    </edge>
    <edge id=":196627002_14" function="internal">
        <lane id=":196627002_14_0" index="0" disallow="tram rail_urban rail rail_electric rail_fast ship container cable_car subway aircraft wheelchair scooter drone" speed="7.70" length="12.90" shape="20.82,669.56 23.90,670.20 26.80,671.96 28.98,674.47 29.88,677.37"/>
    </edge>
    <edge id=":196627002_15" function="internal">
        <lane id=":196627002_15_0" index="0" disallow="tram rail_urban rail rail_electric rail_fast ship container cable_car subway aircraft wheelchair scooter drone" speed="3.65" length="4.67" shape="20.82,669.56 22.02,670.34 22.43,671.14 22.04,671.94 20.85,672.75"/>
    </edge>
    <edge id=":196627004_0" function="internal">
        <lane id=":196627004_0_0" index="0" disallow="tram rail_urban rail rail_electric rail_fast ship container cable_car subway aircraft wheelchair scooter drone" speed="6.45" length="8.83" shape="126.91,675.59 126.50,673.27 125.40,671.64 123.61,670.69 121.14,670.42"/>
    </edge>
    <edge id=":196627004_1" function="internal">
        <lane id=":196627004_1_0" index="0" disallow="tram rail_urban rail rail_electric rail_fast ship container cable_car subway aircraft wheelchair scooter drone" speed="11.18" length="14.12" shape="126.91,675.59 126.48,661.47"/>
    </edge>
    <edge id=":196627004_2" function="internal">
        <lane id=":196627004_2_0" index="0" disallow="tram rail_urban rail rail_electric rail_fast ship container cable_car subway aircraft wheelchair scooter drone" speed="7.91" length="13.97" shape="126.91,675.59 127.36,671.85 128.95,669.16 131.67,667.51 135.53,666.92"/>
    </edge>
    <edge id=":196627004_3" function="internal">
        <lane id=":196627004_3_0" index="0" disallow="tram rail_urban rail rail_electric rail_fast ship container cable_car subway aircraft wheelchair scooter drone" speed="3.65" length="4.67" shape="126.91,675.59 127.68,674.36 128.47,673.94 129.28,674.32 130.11,675.50"/>
    </edge>
    <edge id=":196627004_4" function="internal">
        <lane id=":196627004_4_0" index="0" disallow="tram rail_urban rail rail_electric rail_fast ship container cable_car subway aircraft wheelchair scooter drone" speed="6.40" length="8.77" shape="135.58,670.12 133.13,670.49 131.41,671.51 130.40,673.18 130.11,675.50"/>
    </edge>
    <edge id=":196627004_5" function="internal">
        <lane id=":196627004_5_0" index="0" disallow="tram rail_urban rail rail_electric rail_fast ship container cable_car subway aircraft wheelchair scooter drone" speed="11.18" length="14.45" shape="135.58,670.12 121.14,670.42"/>
    </edge>
    <edge id=":196627004_6" function="internal">
        <lane id=":196627004_6_0" index="0" disallow="tram rail_urban rail rail_electric rail_fast ship container cable_car subway aircraft wheelchair scooter drone" speed="8.07" length="14.27" shape="135.58,670.12 131.71,669.63 128.90,668.03 127.16,665.31 126.48,661.47"/>
    </edge>
    <edge id=":196627004_7" function="internal">
        <lane id=":196627004_7_0" index="0" disallow="tram rail_urban rail rail_electric rail_fast ship container cable_car subway aircraft wheelchair scooter drone" speed="3.65" length="4.67" shape="135.58,670.12 134.37,669.34 133.95,668.54 134.34,667.74 135.53,666.92"/>
    </edge>
    <edge id=":196627004_8" function="internal">
        <lane id=":196627004_8_0" index="0" disallow="tram rail_urban rail rail_electric rail_fast ship container cable_car subway aircraft wheelchair scooter drone" speed="6.58" length="9.16" shape="129.68,661.36 130.11,663.83 131.23,665.58 133.04,666.61 135.53,666.92"/>
    </edge>
    <edge id=":196627004_9" function="internal">
        <lane id=":196627004_9_0" index="0" disallow="tram rail_urban rail rail_electric rail_fast ship container cable_car subway aircraft wheelchair scooter drone" speed="11.18" length="14.14" shape="129.68,661.36 130.11,675.50"/>
    </edge>
    <edge id=":196627004_10" function="internal">
        <lane id=":196627004_10_0" index="0" disallow="tram rail_urban rail rail_electric rail_fast ship container cable_car subway aircraft wheelchair scooter drone" speed="7.99" length="14.22" shape="129.68,661.36 129.25,665.24 127.69,668.05 124.98,669.77 121.14,670.42"/>
    </edge>
    <edge id=":196627004_11" function="internal">
        <lane id=":196627004_11_0" index="0" disallow="tram rail_urban rail rail_electric rail_fast ship container cable_car subway aircraft wheelchair scooter drone" speed="3.65" length="4.67" shape="129.68,661.36 128.92,662.59 128.13,663.02 127.32,662.64 126.48,661.47"/>
    </edge>
    <edge id=":196627004_12" function="internal">
        <lane id=":196627004_12_0" index="0" disallow="tram rail_urban rail rail_electric rail_fast ship container cable_car subway aircraft wheelchair scooter drone" speed="6.49" length="9.03" shape="121.06,667.22 123.50,666.81 125.22,665.71 126.21,663.93 126.48,661.47"/>
    </edge>
    <edge id=":196627004_13" function="internal">
        <lane id=":196627004_13_0" index="0" disallow="tram rail_urban rail rail_electric rail_fast ship container cable_car subway aircraft wheelchair scooter drone" speed="11.18" length="14.47" shape="121.06,667.22 135.53,666.92"/>
    </edge>
    <edge id=":196627004_14" function="internal">
        <lane id=":196627004_14_0" index="0" disallow="tram rail_urban rail rail_electric rail_fast ship container cable_car subway aircraft wheelchair scooter drone" speed="7.95" length="13.98" shape="121.06,667.22 124.93,667.66 127.73,669.18 129.46,671.79 130.11,675.50"/>
    </edge>
    <edge id=":196627004_15" function="internal">
        <lane id=":196627004_15_0" index="0" disallow="tram rail_urban rail rail_electric rail_fast ship container cable_car subway aircraft wheelchair scooter drone" speed="3.65" length="4.67" shape="121.06,667.22 122.28,667.99 122.70,668.78 122.32,669.59 121.14,670.42"/>
    </edge>
    <edge id=":196627013_0" function="internal">
        <lane id=":196627013_0_0" index="0" disallow="tram rail_urban rail rail_electric rail_fast ship container cable_car subway aircraft wheelchair scooter drone" speed="6.08" length="7.64" shape="838.67,660.34 836.60,660.09 835.09,659.23 834.16,657.77 833.79,655.72"/>
    </edge>
    <edge id=":196627013_1" function="internal">
        <lane id=":196627013_1_0" index="0" disallow="tram rail_urban rail rail_electric rail_fast ship container cable_car subway aircraft wheelchair scooter drone" speed="3.91" length="2.55" shape="836.98,655.60 837.11,656.29 837.42,656.77 837.92,657.06 838.61,657.14"/>
    </edge>
    <edge id=":196627030_0" function="internal">
        <lane id=":196627030_0_0" index="0" disallow="tram rail_urban rail rail_electric rail_fast ship container cable_car subway aircraft wheelchair scooter drone" speed="8.82" length="8.09" shape="341.78,667.28 340.17,667.55 338.52,668.33 336.84,669.63 335.11,671.45"/>
    </edge>
    <edge id=":196627030_1" function="internal">
        <lane id=":196627030_1_0" index="0" disallow="tram rail_urban rail rail_electric rail_fast ship container cable_car subway aircraft wheelchair scooter drone" speed="11.18" length="8.59" shape="341.78,667.28 333.19,667.45"/>
    </edge>
    <edge id=":196627030_2" function="internal">
        <lane id=":196627030_2_0" index="0" disallow="tram rail_urban rail rail_electric rail_fast ship container cable_car subway aircraft wheelchair scooter drone" speed="3.65" length="4.67" shape="341.78,667.28 340.58,666.49 340.17,665.69 340.57,664.89 341.77,664.08"/>
    </edge>
    <edge id=":196627030_3" function="internal">
        <lane id=":196627030_3_0" index="0" disallow="tram rail_urban rail rail_electric rail_fast ship container cable_car subway aircraft wheelchair scooter drone" speed="11.18" length="8.66" shape="333.11,664.25 341.77,664.08"/>
    </edge>
    <edge id=":196627030_4" function="internal">
        <lane id=":196627030_4_0" index="0" disallow="tram rail_urban rail rail_electric rail_fast ship container cable_car subway aircraft wheelchair scooter drone" speed="5.93" length="11.37" shape="333.11,664.25 336.32,664.63 337.72,665.95 337.32,668.23 335.11,671.45"/>
    </edge>
    <edge id=":196627030_5" function="internal">
        <lane id=":196627030_5_0" index="0" disallow="tram rail_urban rail rail_electric rail_fast ship container cable_car subway aircraft wheelchair scooter drone" speed="3.65" length="4.67" shape="333.11,664.25 334.33,665.02 334.75,665.81 334.37,666.62 333.19,667.45"/>
    </edge>
    <edge id=":196627032_0" function="internal">
        <lane id=":196627032_0_0" index="0" disallow="tram rail_urban rail rail_electric rail_fast ship container cable_car subway aircraft wheelchair scooter drone" speed="6.46" length="8.71" shape="430.01,671.93 429.59,669.74 428.47,668.19 426.65,667.26 424.14,666.97"/>
    </edge>
    <edge id=":196627032_1" function="internal">
        <lane id=":196627032_1_0" index="0" disallow="tram rail_urban rail rail_electric rail_fast ship container cable_car subway aircraft wheelchair scooter drone" speed="13.41" length="13.85" shape="430.01,671.93 429.57,658.09"/>
    </edge>
    <edge id=":196627032_2" function="internal">
        <lane id=":196627032_2_0" index="0" disallow="tram rail_urban rail rail_electric rail_fast ship container cable_car subway aircraft wheelchair scooter drone" speed="3.65" length="1.44" shape="430.01,671.93 430.77,670.70"/>
    </edge>
    <edge id=":196627032_9" function="internal">
        <lane id=":196627032_9_0" index="0" disallow="tram rail_urban rail rail_electric rail_fast ship container cable_car subway aircraft wheelchair scooter drone" speed="3.65" length="3.23" shape="430.77,670.70 431.56,670.28 432.37,670.66 433.21,671.83"/>
    </edge>
    <edge id=":196627032_3" function="internal">
        <lane id=":196627032_3_0" index="0" disallow="tram rail_urban rail rail_electric rail_fast ship container cable_car subway aircraft wheelchair scooter drone" speed="13.41" length="13.85" shape="432.77,657.99 433.21,671.83"/>
    </edge>
    <edge id=":196627032_4" function="internal">
        <lane id=":196627032_4_0" index="0" disallow="tram rail_urban rail rail_electric rail_fast ship container cable_car subway aircraft wheelchair scooter drone" speed="7.95" length="4.09" shape="432.77,657.99 432.34,661.89 432.26,662.04"/>
    </edge>
    <edge id=":196627032_5" function="internal">
        <lane id=":196627032_5_0" index="0" disallow="tram rail_urban rail rail_electric rail_fast ship container cable_car subway aircraft wheelchair scooter drone" speed="3.65" length="1.44" shape="432.77,657.99 432.01,659.21"/>
    </edge>
    <edge id=":196627032_10" function="internal">
        <lane id=":196627032_10_0" index="0" disallow="tram rail_urban rail rail_electric rail_fast ship container cable_car subway aircraft wheelchair scooter drone" speed="7.95" length="10.20" shape="432.26,662.04 430.76,664.69 428.02,666.38 424.14,666.97"/>
    </edge>
    <edge id=":196627032_11" function="internal">
        <lane id=":196627032_11_0" index="0" disallow="tram rail_urban rail rail_electric rail_fast ship container cable_car subway aircraft wheelchair scooter drone" speed="3.65" length="3.23" shape="432.01,659.21 431.22,659.64 430.41,659.26 429.57,658.09"/>
    </edge>
    <edge id=":196627032_6" function="internal">
        <lane id=":196627032_6_0" index="0" disallow="tram rail_urban rail rail_electric rail_fast ship container cable_car subway aircraft wheelchair scooter drone" speed="6.45" length="9.03" shape="424.11,663.77 426.57,663.40 428.30,662.33 429.30,660.56 429.57,658.09"/>
    </edge>
    <edge id=":196627032_7" function="internal">
        <lane id=":196627032_7_0" index="0" disallow="tram rail_urban rail rail_electric rail_fast ship container cable_car subway aircraft wheelchair scooter drone" speed="7.96" length="13.78" shape="424.11,663.77 428.00,664.25 430.81,665.75 432.55,668.28 433.21,671.83"/>
    </edge>
    <edge id=":196627032_8" function="internal">
        <lane id=":196627032_8_0" index="0" disallow="tram rail_urban rail rail_electric rail_fast ship container cable_car subway aircraft wheelchair scooter drone" speed="3.65" length="4.67" shape="424.11,663.77 425.32,664.56 425.72,665.36 425.33,666.16 424.14,666.97"/>
    </edge>
    <edge id=":196630145_0" function="internal">
        <lane id=":196630145_0_0" index="0" disallow="tram rail_urban rail rail_electric rail_fast ship container cable_car subway aircraft wheelchair scooter drone" speed="6.58" length="9.16" shape="20.18,476.64 19.74,474.17 18.63,472.42 16.83,471.40 14.34,471.09"/>
    </edge>
    <edge id=":196630145_1" function="internal">
        <lane id=":196630145_1_0" index="0" disallow="tram rail_urban rail rail_electric rail_fast ship container cable_car subway aircraft wheelchair scooter drone" speed="11.18" length="14.48" shape="20.18,476.64 19.72,462.16"/>
    </edge>
    <edge id=":196630145_2" function="internal">
        <lane id=":196630145_2_0" index="0" disallow="tram rail_urban rail rail_electric rail_fast ship container cable_car subway aircraft wheelchair scooter drone" speed="7.98" length="4.08" shape="20.18,476.64 20.61,472.75 20.69,472.60"/>
    </edge>
    <edge id=":196630145_3" function="internal">
        <lane id=":196630145_3_0" index="0" disallow="tram rail_urban rail rail_electric rail_fast ship container cable_car subway aircraft wheelchair scooter drone" speed="3.65" length="1.44" shape="20.18,476.64 20.94,475.41"/>
    </edge>
    <edge id=":196630145_16" function="internal">
        <lane id=":196630145_16_0" index="0" disallow="tram rail_urban rail rail_electric rail_fast ship container cable_car subway aircraft wheelchair scooter drone" speed="7.98" length="10.16" shape="20.69,472.60 22.18,469.95 24.90,468.24 28.76,467.61"/>
    </edge>
    <edge id=":196630145_17" function="internal">
        <lane id=":196630145_17_0" index="0" disallow="tram rail_urban rail rail_electric rail_fast ship container cable_car subway aircraft wheelchair scooter drone" speed="3.65" length="3.23" shape="20.94,475.41 21.73,474.99 22.54,475.36 23.38,476.54"/>
    </edge>
    <edge id=":196630145_4" function="internal">
        <lane id=":196630145_4_0" index="0" disallow="tram rail_urban rail rail_electric rail_fast ship container cable_car subway aircraft wheelchair scooter drone" speed="6.48" length="9.03" shape="28.82,470.81 26.37,471.21 24.65,472.30 23.65,474.07 23.38,476.54"/>
    </edge>
    <edge id=":196630145_5" function="internal">
        <lane id=":196630145_5_0" index="0" disallow="tram rail_urban rail rail_electric rail_fast ship container cable_car subway aircraft wheelchair scooter drone" speed="11.18" length="14.48" shape="28.82,470.81 14.34,471.09"/>
    </edge>
    <edge id=":196630145_6" function="internal">
        <lane id=":196630145_6_0" index="0" disallow="tram rail_urban rail rail_electric rail_fast ship container cable_car subway aircraft wheelchair scooter drone" speed="8.06" length="4.08" shape="28.82,470.81 24.94,470.33 24.79,470.25"/>
    </edge>
    <edge id=":196630145_7" function="internal">
        <lane id=":196630145_7_0" index="0" disallow="tram rail_urban rail rail_electric rail_fast ship container cable_car subway aircraft wheelchair scooter drone" speed="3.65" length="1.44" shape="28.82,470.81 27.60,470.04"/>
    </edge>
    <edge id=":196630145_18" function="internal">
        <lane id=":196630145_18_0" index="0" disallow="tram rail_urban rail rail_electric rail_fast ship container cable_car subway aircraft wheelchair scooter drone" speed="8.06" length="10.19" shape="24.79,470.25 22.13,468.73 20.39,466.01 19.72,462.16"/>
    </edge>
    <edge id=":196630145_19" function="internal">
        <lane id=":196630145_19_0" index="0" disallow="tram rail_urban rail rail_electric rail_fast ship container cable_car subway aircraft wheelchair scooter drone" speed="3.65" length="3.23" shape="27.60,470.04 27.19,469.24 27.57,468.44 28.76,467.61"/>
    </edge>
    <edge id=":196630145_8" function="internal">
        <lane id=":196630145_8_0" index="0" disallow="tram rail_urban rail rail_electric rail_fast ship container cable_car subway aircraft wheelchair scooter drone" speed="6.58" length="9.16" shape="22.92,462.06 23.35,464.53 24.47,466.28 26.27,467.31 28.76,467.61"/>
    </edge>
    <edge id=":196630145_9" function="internal">
        <lane id=":196630145_9_0" index="0" disallow="tram rail_urban rail rail_electric rail_fast ship container cable_car subway aircraft wheelchair scooter drone" speed="11.18" length="14.48" shape="22.92,462.06 23.38,476.54"/>
    </edge>
    <edge id=":196630145_10" function="internal">
        <lane id=":196630145_10_0" index="0" disallow="tram rail_urban rail rail_electric rail_fast ship container cable_car subway aircraft wheelchair scooter drone" speed="7.98" length="4.08" shape="22.92,462.06 22.49,465.95 22.40,466.09"/>
    </edge>
    <edge id=":196630145_11" function="internal">
        <lane id=":196630145_11_0" index="0" disallow="tram rail_urban rail rail_electric rail_fast ship container cable_car subway aircraft wheelchair scooter drone" speed="3.65" length="1.44" shape="22.92,462.06 22.16,463.29"/>
    </edge>
    <edge id=":196630145_20" function="internal">
        <lane id=":196630145_20_0" index="0" disallow="tram rail_urban rail rail_electric rail_fast ship container cable_car subway aircraft wheelchair scooter drone" speed="7.98" length="10.16" shape="22.40,466.09 20.91,468.75 18.20,470.46 14.34,471.09"/>
    </edge>
    <edge id=":196630145_21" function="internal">
        <lane id=":196630145_21_0" index="0" disallow="tram rail_urban rail rail_electric rail_fast ship container cable_car subway aircraft wheelchair scooter drone" speed="3.65" length="3.23" shape="22.16,463.29 21.37,463.71 20.56,463.34 19.72,462.16"/>
    </edge>
    <edge id=":196630145_12" function="internal">
        <lane id=":196630145_12_0" index="0" disallow="tram rail_urban rail rail_electric rail_fast ship container cable_car subway aircraft wheelchair scooter drone" speed="6.48" length="9.03" shape="14.28,467.89 16.73,467.49 18.45,466.40 19.45,464.63 19.72,462.16"/>
    </edge>
    <edge id=":196630145_13" function="internal">
        <lane id=":196630145_13_0" index="0" disallow="tram rail_urban rail rail_electric rail_fast ship container cable_car subway aircraft wheelchair scooter drone" speed="11.18" length="14.48" shape="14.28,467.89 28.76,467.61"/>
    </edge>
    <edge id=":196630145_14" function="internal">
        <lane id=":196630145_14_0" index="0" disallow="tram rail_urban rail rail_electric rail_fast ship container cable_car subway aircraft wheelchair scooter drone" speed="8.06" length="4.08" shape="14.28,467.89 18.15,468.37 18.31,468.46"/>
    </edge>
    <edge id=":196630145_15" function="internal">
        <lane id=":196630145_15_0" index="0" disallow="tram rail_urban rail rail_electric rail_fast ship container cable_car subway aircraft wheelchair scooter drone" speed="3.65" length="1.44" shape="14.28,467.89 15.49,468.67"/>
    </edge>
    <edge id=":196630145_22" function="internal">
        <lane id=":196630145_22_0" index="0" disallow="tram rail_urban rail rail_electric rail_fast ship container cable_car subway aircraft wheelchair scooter drone" speed="8.06" length="10.19" shape="18.31,468.46 20.96,469.97 22.70,472.69 23.38,476.54"/>
    </edge>
    <edge id=":196630145_23" function="internal">
        <lane id=":196630145_23_0" index="0" disallow="tram rail_urban rail rail_electric rail_fast ship container cable_car subway aircraft wheelchair scooter drone" speed="3.65" length="3.23" shape="15.49,468.67 15.91,469.46 15.53,470.27 14.34,471.09"/>
    </edge>
    <edge id=":196630147_0" function="internal">
        <lane id=":196630147_0_0" index="0" disallow="tram rail_urban rail rail_electric rail_fast ship container cable_car subway aircraft wheelchair scooter drone" speed="6.67" length="9.34" shape="120.45,475.49 120.01,472.97 118.87,471.17 117.05,470.10 114.53,469.76"/>
    </edge>
    <edge id=":196630147_1" function="internal">
        <lane id=":196630147_1_0" index="0" disallow="tram rail_urban rail rail_electric rail_fast ship container cable_car subway aircraft wheelchair scooter drone" speed="11.18" length="14.61" shape="120.45,475.49 119.97,460.89"/>
    </edge>
    <edge id=":196630147_2" function="internal">
        <lane id=":196630147_2_0" index="0" disallow="tram rail_urban rail rail_electric rail_fast ship container cable_car subway aircraft wheelchair scooter drone" speed="7.94" length="14.33" shape="120.45,475.49 120.88,471.56 122.47,468.76 125.22,467.09 129.13,466.55"/>
    </edge>
    <edge id=":196630147_3" function="internal">
        <lane id=":196630147_3_0" index="0" disallow="tram rail_urban rail rail_electric rail_fast ship container cable_car subway aircraft wheelchair scooter drone" speed="3.65" length="4.67" shape="120.45,475.49 121.21,474.26 121.99,473.83 122.81,474.21 123.65,475.38"/>
    </edge>
    <edge id=":196630147_4" function="internal">
        <lane id=":196630147_4_0" index="0" disallow="tram rail_urban rail rail_electric rail_fast ship container cable_car subway aircraft wheelchair scooter drone" speed="6.43" length="9.03" shape="129.12,469.75 126.66,470.09 124.92,471.14 123.92,472.91 123.65,475.38"/>
    </edge>
    <edge id=":196630147_5" function="internal">
        <lane id=":196630147_5_0" index="0" disallow="tram rail_urban rail rail_electric rail_fast ship container cable_car subway aircraft wheelchair scooter drone" speed="11.18" length="14.59" shape="129.12,469.75 114.53,469.76"/>
    </edge>
    <edge id=":196630147_6" function="internal">
        <lane id=":196630147_6_0" index="0" disallow="tram rail_urban rail rail_electric rail_fast ship container cable_car subway aircraft wheelchair scooter drone" speed="8.17" length="4.07" shape="129.12,469.75 125.24,469.18 125.11,469.10"/>
    </edge>
    <edge id=":196630147_7" function="internal">
        <lane id=":196630147_7_0" index="0" disallow="tram rail_urban rail rail_electric rail_fast ship container cable_car subway aircraft wheelchair scooter drone" speed="3.65" length="1.44" shape="129.12,469.75 127.92,468.94"/>
    </edge>
    <edge id=":196630147_16" function="internal">